/*--------------------------------*- C++ -*----------------------------------*\
| =========                 |                                                 |
| \\      /  F ield         | OpenFOAM: The Open Source CFD Toolbox           |
|  \\    /   O peration     | Version:  2312                                  |
|   \\  /    A nd           | Website:  www.openfoam.com                      |
|    \\/     M anipulation  |                                                 |
\*---------------------------------------------------------------------------*/
FoamFile
{
    version     2.0;
    format      ascii;
    arch        "LSB;label=32;scalar=64";
    class       polyBoundaryMesh;
    location    "constant/polyMesh";
    object      boundary;
}
// * * * * * * * * * * * * * * * * * * * * * * * * * * * * * * * * * * * * * //

5
(
    leftWall
    {
        type            wall;
        inGroups        1(wall);
        nFaces          140;
        startFace       38920;
    }
    rightWall
    {
        type            wall;
        inGroups        1(wall);
        nFaces          140;
        startFace       39060;
    }
    lowerWall
    {
        type            wall;
        inGroups        1(wall);
        nFaces          140;
        startFace       39200;
    }
    upperWall
    {
        type            patch;
        nFaces          140;
        startFace       39340;
    }
    defaultFaces
    {
        type            empty;
        inGroups        1(empty);
        nFaces          39200;
        startFace       39480;
    }
)

// ************************************************************************* //
