/*--------------------------------*- C++ -*----------------------------------*\
| =========                 |                                                 |
| \\      /  F ield         | OpenFOAM: The Open Source CFD Toolbox           |
|  \\    /   O peration     | Version:  v2312                                 |
|   \\  /    A nd           | Website:  www.openfoam.com                      |
|    \\/     M anipulation  |                                                 |
\*---------------------------------------------------------------------------*/
FoamFile
{
    version     2.0;
    format      ascii;
    class       dictionary;
    object      blockMeshDict;
}
// * * * * * * * * * * * * * * * * * * * * * * * * * * * * * * * * * * * * * //

scale   1;


vertices
(
    (0 0 0)
    ({xmax} 0 0)
    ({xmax} {ymax} 0)
    (0 {ymax} 0)
    (0 0 0.01)
    ({xmax} 0 0.01)
    ({xmax} {ymax} 0.01)
    (0 {ymax} 0.01)
);

blocks
(
    hex (0 1 2 3 4 5 6 7) ({xnode} {ynode} 1) simpleGrading (1 1 1)
);

edges
(
);


boundary
(
    leftWall
    {
        type wall;
        faces
        (
            (0 4 7 3)
        );
    }
    rightWall
    {
        type wall;
        faces
        (
            (2 6 5 1)
        );
    }
    lowerWall
    {
        type wall;
        faces
        (
            (1 5 4 0)
        );
    }
    upperWall
    {
        type patch;
        faces
        (
            (3 7 6 2)
        );
    }
);

