/*--------------------------------*- C++ -*----------------------------------*\
| =========                 |                                                 |
| \\      /  F ield         | OpenFOAM: The Open Source CFD Toolbox           |
|  \\    /   O peration     | Version:  v2312                                 |
|   \\  /    A nd           | Website:  www.openfoam.com                      |
|    \\/     M anipulation  |                                                 |
\*---------------------------------------------------------------------------*/
FoamFile
{
    version     2.0;
    format      ascii;
    class       dictionary;
    object      setFieldsDict;
}
// * * * * * * * * * * * * * * * * * * * * * * * * * * * * * * * * * * * * * //

defaultFieldValues
(
    volScalarFieldValue ID 0
    volScalarFieldValue corr 0
);

regions
(
cylinderToCell
{
p1 (0.045 0.045 0); //Min
p2 (0.045 0.045 0.01); //Max
radius 0.005;

fieldValues
(
volScalarFieldValue ID 1
);
}

cylinderToCell
{
p1 (0.045 0.045 0); //Min
p2 (0.045 0.045 0.01); //Max
radius 0.00287;

fieldValues
(
volScalarFieldValue corr 1
);
}


);

   

// ************************************************************************* //
